LTspice 24.1.5 for Windows
Circuit: C:\Users\salaj\Desktop\Salajan Denisa_SAIC\etaj4\fullwaverect-Transient.net
Start Time: Thu Jan 22 20:05:50 2026
solver = Normal
Maximum thread count: 12
tnom = 27
temp = 27
method = modified trap
Per .tran options, skipping operating point for transient analysis.
Total elapsed time: 1.035 seconds.

Files loaded:
C:\Users\salaj\Desktop\Salajan Denisa_SAIC\etaj4\fullwaverect-Transient.net
C:\Users\salaj\AppData\Local\LTspice\lib\cmp\standard.dio
C:\Users\salaj\AppData\Local\LTspice\lib\sub\ADI.lib

