LTspice 24.1.5 for Windows
Circuit: C:\Users\salaj\Desktop\Salajan Denisa_SAIC\1-2-3-4.net
Start Time: Fri Jan 23 01:11:29 2026
solver = Normal
Maximum thread count: 12
tnom = 27
temp = 27
method = modified trap
WARNING: Node s1 is floating.
WARNING: Node s2 is floating.
WARNING: Node s3 is floating.
WARNING: Node s4 is floating.
WARNING: Node s5 is floating.

Per .tran options, skipping operating point for transient analysis.
Total elapsed time: 0.464 seconds.

Files loaded:
C:\Users\salaj\Desktop\Salajan Denisa_SAIC\1-2-3-4.net
C:\Users\salaj\AppData\Local\LTspice\lib\cmp\standard.dio
C:\Users\salaj\AppData\Local\LTspice\lib\sub\ADI.lib
C:\Users\salaj\AppData\Local\LTspice\lib\sub\UniversalOpAmp1.lib

