LTspice 24.1.5 for Windows
Circuit: C:\Users\salaj\Desktop\Salajan Denisa_SAIC\etaj2\etaj2-AC-Transient.net
Start Time: Fri Jan 30 02:55:20 2026
solver = Normal
Maximum thread count: 12
tnom = 27
temp = 27
method = modified trap
Direct Newton iteration failed to find .op point.  (Use ".option noopiter" to skip.)
Starting Gmin stepping
Gmin = 10
Gmin = 1.07374
Gmin = 0.115292
Gmin = 0.0123794
Gmin = 0.00132923
Gmin = 0.000142725
Gmin = 1.5325e-05
Gmin = 1.6455e-06
Gmin = 1.76685e-07
Gmin = 1.89714e-08
Gmin = 2.03704e-09
Gmin = 2.18725e-10
Gmin = 2.34854e-11
Gmin = 2.52173e-12
Gmin = 2.70769e-13
Gmin = 0
Gmin stepping succeeded in finding the operating point.

Total elapsed time: 0.201 seconds.

Files loaded:
C:\Users\salaj\Desktop\Salajan Denisa_SAIC\etaj2\etaj2-AC-Transient.net
C:\Users\salaj\AppData\Local\LTspice\lib\sub\ADI.lib

Fourier components of V(out)
N-Period=1
DC component:-9.27909e-08

Harmonic	Frequency	 Fourier 	Normalized	 Phase  	Normalized
 Number 	  [Hz]   	Component	 Component	[degree]	Phase [deg]
    1   	 3.000e+03	 2.115e-04	 1.000e+00	 -179.45°	    0.00°
    2   	 6.000e+03	 1.353e-07	 6.397e-04	 -179.69°	   -0.24°
    3   	 9.000e+03	 4.753e-07	 2.247e-03	  -64.08°	  115.37°
    4   	 1.200e+04	 1.500e-07	 7.092e-04	  167.00°	  346.45°
    5   	 1.500e+04	 1.803e-07	 8.526e-04	   46.18°	  225.63°
    6   	 1.800e+04	 7.014e-08	 3.316e-04	  166.65°	  346.10°
    7   	 2.100e+04	 1.458e-07	 6.893e-04	   62.17°	  241.62°
    8   	 2.400e+04	 8.554e-08	 4.044e-04	  132.12°	  311.57°
    9   	 2.700e+04	 2.394e-07	 1.132e-03	   94.87°	  274.32°
Partial Harmonic Distortion: 0.295274%
Total Harmonic Distortion:   0.582156%

