LTspice 24.1.5 for Windows
Circuit: C:\Users\salaj\Desktop\Salajan Denisa_SAIC\etaj3\tb_PGA_serie_AO_ideal_switchIdeal-THD.net
Start Time: Fri Jan 30 02:58:58 2026
solver = Normal
Maximum thread count: 12
tnom = 27
temp = 27
method = modified trap
Direct Newton iteration for .op point succeeded.
Total elapsed time: 0.091 seconds.

Files loaded:
C:\Users\salaj\Desktop\Salajan Denisa_SAIC\etaj3\tb_PGA_serie_AO_ideal_switchIdeal-THD.net
C:\Users\salaj\AppData\Local\LTspice\lib\sub\UniversalOpAmp1.lib

Fourier components of V(out)
N-Period=1
DC component:-8.45725e-06

Harmonic	Frequency	 Fourier 	Normalized	 Phase  	Normalized
 Number 	  [Hz]   	Component	 Component	[degree]	Phase [deg]
    1   	 3.000e+03	 1.676e-02	 1.000e+00	   90.07°	    0.00°
    2   	 6.000e+03	 2.399e-05	 1.432e-03	  176.48°	   86.41°
    3   	 9.000e+03	 2.020e-05	 1.205e-03	 -146.22°	 -236.29°
    4   	 1.200e+04	 1.737e-05	 1.036e-03	  167.48°	   77.41°
    5   	 1.500e+04	 2.983e-05	 1.780e-03	  147.33°	   57.26°
    6   	 1.800e+04	 2.275e-05	 1.358e-03	  168.28°	   78.21°
    7   	 2.100e+04	 1.360e-05	 8.113e-04	 -163.96°	 -254.04°
    8   	 2.400e+04	 1.798e-05	 1.073e-03	  158.00°	   67.93°
    9   	 2.700e+04	 2.861e-05	 1.707e-03	  150.12°	   60.05°
   10   	 3.000e+04	 2.130e-05	 1.271e-03	  158.24°	   68.17°
Partial Harmonic Distortion: 0.399075%
Total Harmonic Distortion:   0.724177%

