LTspice 24.1.5 for Windows
Circuit: C:\Users\salaj\Desktop\Salajan Denisa_SAIC\etaj3\tb_PGA_serie_AO_ideal_switchIdeal-AC-castig.net
Start Time: Fri Jan 30 02:58:38 2026
solver = Normal
Maximum thread count: 12
tnom = 27
temp = 27
method = modified trap
Direct Newton iteration for .op point succeeded.
Total elapsed time: 0.035 seconds.

Files loaded:
C:\Users\salaj\Desktop\Salajan Denisa_SAIC\etaj3\tb_PGA_serie_AO_ideal_switchIdeal-AC-castig.net
C:\Users\salaj\AppData\Local\LTspice\lib\sub\UniversalOpAmp1.lib

