LTspice 24.1.5 for Windows
Circuit: C:\Users\salaj\Desktop\Salajan Denisa_SAIC\etaj1\AI_VI_Howland_Gm-AC-THD.net
Start Time: Fri Jan 30 11:17:38 2026
solver = Normal
Maximum thread count: 12
tnom = 27
temp = 27
method = modified trap
Direct Newton iteration failed to find .op point.  (Use ".option noopiter" to skip.)
Starting Gmin stepping
Gmin = 10
Gmin = 1.07374
Gmin = 0.115292
Gmin = 0.0123794
Gmin = 0.00132923
Gmin = 0.000142725
Gmin = 1.5325e-05
Gmin = 1.6455e-06
Gmin = 1.76685e-07
Gmin = 1.89714e-08
Gmin = 2.03704e-09
Gmin = 2.18725e-10
Gmin = 2.34854e-11
Gmin = 2.52173e-12
Gmin = 2.70769e-13
Gmin = 0
Gmin stepping succeeded in finding the operating point.

Total elapsed time: 1.952 seconds.

Files loaded:
C:\Users\salaj\Desktop\Salajan Denisa_SAIC\etaj1\AI_VI_Howland_Gm-AC-THD.net
C:\Users\salaj\AppData\Local\LTspice\lib\sub\ADI.lib

Fourier components of V(out)
N-Period=1
DC component:-0.0324212

Harmonic	Frequency	 Fourier 	Normalized	 Phase  	Normalized
 Number 	  [Hz]   	Component	 Component	[degree]	Phase [deg]
    1   	 3.000e+03	 1.056e-04	 1.000e+00	   89.99°	    0.00°
    2   	 6.000e+03	 5.997e-09	 5.681e-05	  -66.49°	 -156.48°
    3   	 9.000e+03	 7.097e-08	 6.723e-04	  121.39°	   31.40°
    4   	 1.200e+04	 9.648e-09	 9.140e-05	  118.23°	   28.24°
    5   	 1.500e+04	 7.324e-08	 6.938e-04	  -46.72°	 -136.71°
    6   	 1.800e+04	 7.724e-09	 7.317e-05	  -33.13°	 -123.12°
    7   	 2.100e+04	 3.678e-08	 3.484e-04	  109.67°	   19.69°
    8   	 2.400e+04	 7.315e-09	 6.929e-05	  -43.12°	 -133.10°
    9   	 2.700e+04	 6.750e-08	 6.394e-04	  169.21°	   79.22°
Partial Harmonic Distortion: 0.121877%
Total Harmonic Distortion:   0.138173%

