LTspice 24.1.5 for Windows
Circuit: C:\Users\salaj\Desktop\Salajan Denisa_SAIC\etaj1\AI_VI_Howland_Gm-DCOPsim.net
Start Time: Mon Jan 26 18:42:50 2026
solver = Normal
Maximum thread count: 12
tnom = 27
temp = 27
method = modified trap
Direct Newton iteration failed to find .op point.  (Use ".option noopiter" to skip.)
Starting Gmin stepping
Gmin = 10
Gmin = 1.07374
Gmin = 0.115292
Gmin = 0.0123794
Gmin = 0.00132923
Gmin = 0.000142725
Gmin = 1.5325e-05
Gmin = 1.6455e-06
Gmin = 1.76685e-07
Gmin = 1.89714e-08
Gmin = 2.03704e-09
Gmin = 2.18725e-10
Gmin = 2.34854e-11
Gmin = 2.52173e-12
Gmin = 2.70769e-13
Gmin = 0
Gmin stepping succeeded in finding the operating point.

Total elapsed time: 0.143 seconds.

Files loaded:
C:\Users\salaj\Desktop\Salajan Denisa_SAIC\etaj1\AI_VI_Howland_Gm-DCOPsim.net
C:\Users\salaj\AppData\Local\LTspice\lib\sub\ADI.lib

GM: (I(R1)/V(IN))=(-119.998257862dB,-7.58641736008e-06°) at 1
Iout_Max: MAX(mag(i(r1)))=(-107.962694733dB,0°) FROM 0.01 TO 10000000
BW: i(r1)=(-110.972994689dB,177.087577109°) at 3562691.19271
