LTspice 24.1.5 for Windows
Circuit: C:\Users\salaj\Desktop\Salajan Denisa_SAIC\etaj1\Draft1.net
Start Time: Thu Jan 29 20:15:24 2026
solver = Normal
Maximum thread count: 12
tnom = 27
temp = 27
method = modified trap
Direct Newton iteration failed to find .op point.  (Use ".option noopiter" to skip.)
Starting Gmin stepping
Gmin = 10
Gmin = 1.07374
Gmin = 0.115292
Gmin = 0.0123794
Gmin = 0.00132923
Gmin = 0.000142725
Gmin = 1.5325e-05
Gmin = 1.6455e-06
Gmin = 1.76685e-07
Gmin = 1.89714e-08
Gmin = 2.03704e-09
Gmin = 2.18725e-10
Gmin = 2.34854e-11
Gmin = 2.52173e-12
Gmin = 2.70769e-13
Gmin = 0
Gmin stepping succeeded in finding the operating point.

Total elapsed time: 0.687 seconds.

Files loaded:
C:\Users\salaj\Desktop\Salajan Denisa_SAIC\etaj1\Draft1.net
C:\Users\salaj\AppData\Local\LTspice\lib\sub\ADI.lib

Fourier components of V(out)
N-Period=1
DC component:-10.758

Harmonic	Frequency	 Fourier 	Normalized	 Phase  	Normalized
 Number 	  [Hz]   	Component	 Component	[degree]	Phase [deg]
    1   	 3.000e+03	 4.550e-02	 1.000e+00	   91.23°	    0.00°
    2   	 6.000e+03	 1.150e-05	 2.528e-04	   57.79°	  -33.44°
    3   	 9.000e+03	 1.922e-05	 4.224e-04	  109.03°	   17.80°
    4   	 1.200e+04	 1.643e-05	 3.611e-04	 -118.07°	 -209.30°
    5   	 1.500e+04	 2.095e-05	 4.604e-04	  -59.99°	 -151.22°
    6   	 1.800e+04	 7.936e-06	 1.744e-04	   84.50°	   -6.73°
    7   	 2.100e+04	 2.478e-05	 5.447e-04	  104.87°	   13.64°
    8   	 2.400e+04	 1.701e-05	 3.738e-04	   42.76°	  -48.47°
    9   	 2.700e+04	 1.700e-05	 3.736e-04	 -131.47°	 -222.70°
Partial Harmonic Distortion: 0.109139%
Total Harmonic Distortion:   0.127599%

